FoamFile { format ascii; class dictionary; location "constant"; object physicalProperties.water; }
viscosityModel constant;
nu  1e-6;
rho 1000;
