FoamFile
{
    format      ascii;
    class       dictionary;
    object      fvSchemes;
}

ddtSchemes           { default Euler; }
gradSchemes
{
    // Unlimited Gauss linear for the WB regression — limiter
    // interactions are tested separately.
    default          Gauss linear;
}
divSchemes           { default Gauss linear; }
laplacianSchemes     { default Gauss linear corrected; }
interpolationSchemes { default linear; }
snGradSchemes        { default corrected; }
