FoamFile
{
    format      ascii;
    class       volScalarField;
    object      Q2;
}

dimensions      [0 0 0 0 0 0 0];   // hu — dimensionless
internalField   uniform 0;

boundaryField
{
    inflow        { type zeroGradient; }
    outflow       { type zeroGradient; }
    sides         { type empty; }
    topAndBottom  { type empty; }
}
