FoamFile
{ format ascii; class dictionary; object blockMeshDict; }
convertToMeters 1;
vertices (
    (0 0 0) (10 0 0) (10 1 0) (0 1 0)
    (0 0 1) (10 0 1) (10 1 1) (0 1 1)
);
blocks ( hex (0 1 2 3 4 5 6 7) (100 1 1) simpleGrading (1 1 1) );
boundary (
    inflow       { type patch; faces ((0 4 7 3)); }
    outflow      { type patch; faces ((1 2 6 5)); }
    sides        { type empty; faces ((0 1 5 4) (3 7 6 2)); }
    topAndBottom { type empty; faces ((0 3 2 1) (4 5 6 7)); }
);
mergePatchPairs ();
