FoamFile
{ format ascii; class dictionary; object fvSolution; }
solvers { "Q.*" { solver diagonal; } }
