FoamFile
{
    format      ascii;
    class       dictionary;
    object      blockMeshDict;
}

convertToMeters 1;

xmin    0;
xmax   10;
ymin    0;
ymax    1;
zmin    0;
zmax    1;
nx    200;

vertices
(
    ($xmin $ymin $zmin)   //0
    ($xmax $ymin $zmin)   //1
    ($xmax $ymax $zmin)   //2
    ($xmin $ymax $zmin)   //3
    ($xmin $ymin $zmax)   //4
    ($xmax $ymin $zmax)   //5
    ($xmax $ymax $zmax)   //6
    ($xmin $ymax $zmax)   //7
);

blocks
(
    hex (0 1 2 3 4 5 6 7) ($nx 1 1) simpleGrading (1 1 1)
);

edges ();

boundary
(
    inflow
    {
        type patch;
        faces ((0 4 7 3));
    }
    outflow
    {
        type patch;
        faces ((1 2 6 5));
    }
    sides
    {
        type empty;
        faces
        (
            (0 1 5 4)
            (3 7 6 2)
        );
    }
    topAndBottom
    {
        type empty;
        faces
        (
            (0 3 2 1)
            (4 5 6 7)
        );
    }
);

mergePatchPairs ();
