FoamFile
{
    format      ascii;
    class       dictionary;
    object      controlDict;
}

application     zoomyFoam;

startFrom       startTime;
startTime       0;

stopAt          endTime;
endTime         1.0;

deltaT          0.001;        // overridden by adaptive CFL each step

writeControl    adjustableRunTime;
writeInterval   0.1;

purgeWrite      0;

writeFormat     ascii;
writePrecision  10;
writeCompression off;

timeFormat      general;
timePrecision   6;

runTimeModifiable true;

adjustTimeStep  no;            // zoomyFoam drives dt via numerics::compute_dt
maxCo           0.4;
