FoamFile
{
    format      ascii;
    class       dictionary;
    object      controlDict;
}

application     zoomyFoam;
startFrom       startTime;
startTime       0;
stopAt          endTime;
endTime         1.0;
deltaT          0.001;
writeControl    adjustableRunTime;
writeInterval   0.1;
purgeWrite      0;
writeFormat     ascii;
writePrecision  10;
timeFormat      general;
runTimeModifiable true;
adjustTimeStep  no;
maxCo           0.4;
